/home/kang/bioinfo_study/VP2_PDB/temp.pdb
 OpenBabel05102415443D

121  0  0  0  0  0  0  0  0  0999 V2000
   29.0080    0.3400  101.1190 O   0  0  0  0  0  0  0  0  0  0  0  0
  -17.4510   15.9600  120.7230 O   0  0  0  0  0  0  0  0  0  0  0  0
   16.1970   32.3840   76.3780 O   0  0  0  0  0  0  0  0  0  0  0  0
   25.7900   57.4760   96.3170 O   0  0  0  0  0  0  0  0  0  0  0  0
   42.3390   19.9510   97.2270 O   0  0  0  0  0  0  0  0  0  0  0  0
   37.8850   18.3510  130.7410 O   0  0  0  0  0  0  0  0  0  0  0  0
   19.8690    0.8480   97.8470 O   0  0  0  0  0  0  0  0  0  0  0  0
    8.0540   10.3670   84.5770 O   0  0  0  0  0  0  0  0  0  0  0  0
    3.1100   32.0260  110.8560 O   0  0  0  0  0  0  0  0  0  0  0  0
   19.3640   32.0030   78.6000 O   0  0  0  0  0  0  0  0  0  0  0  0
  -12.0780   29.6390   98.0010 O   0  0  0  0  0  0  0  0  0  0  0  0
    1.6150   49.5700  108.5860 O   0  0  0  0  0  0  0  0  0  0  0  0
   -1.9340   14.2130   82.8350 O   0  0  0  0  0  0  0  0  0  0  0  0
    8.0250   48.3190   97.5350 O   0  0  0  0  0  0  0  0  0  0  0  0
    1.8060   -5.9930   82.6480 O   0  0  0  0  0  0  0  0  0  0  0  0
   35.7270   22.5620  141.7830 O   0  0  0  0  0  0  0  0  0  0  0  0
    5.1140   36.7510  103.0660 O   0  0  0  0  0  0  0  0  0  0  0  0
   17.1780    7.8860   81.2690 O   0  0  0  0  0  0  0  0  0  0  0  0
   20.0250    3.8210   92.2500 O   0  0  0  0  0  0  0  0  0  0  0  0
   19.3610    5.5380  135.7830 O   0  0  0  0  0  0  0  0  0  0  0  0
  -12.7050   10.2290   92.4000 O   0  0  0  0  0  0  0  0  0  0  0  0
   15.8180   46.3250   91.8990 O   0  0  0  0  0  0  0  0  0  0  0  0
   14.9510   29.8450  102.5760 O   0  0  0  0  0  0  0  0  0  0  0  0
   -5.1750   41.2090   77.9910 O   0  0  0  0  0  0  0  0  0  0  0  0
  -19.3680   18.1850  118.2710 O   0  0  0  0  0  0  0  0  0  0  0  0
   28.7610   -9.2170  109.7870 O   0  0  0  0  0  0  0  0  0  0  0  0
    2.4290   -2.6540  119.4450 O   0  0  0  0  0  0  0  0  0  0  0  0
   44.2090   33.3060  102.7620 O   0  0  0  0  0  0  0  0  0  0  0  0
   11.7330   18.2200  106.5090 O   0  0  0  0  0  0  0  0  0  0  0  0
   11.0700   10.6950  128.8750 O   0  0  0  0  0  0  0  0  0  0  0  0
   18.7480   -2.7420  130.9230 O   0  0  0  0  0  0  0  0  0  0  0  0
   17.7160   32.0050  120.0050 O   0  0  0  0  0  0  0  0  0  0  0  0
  -13.7040   -1.1020  112.0480 O   0  0  0  0  0  0  0  0  0  0  0  0
    1.1580   57.7960  102.9340 O   0  0  0  0  0  0  0  0  0  0  0  0
   16.7020   27.2470   81.1790 O   0  0  0  0  0  0  0  0  0  0  0  0
  -14.0610   50.5110  110.5260 O   0  0  0  0  0  0  0  0  0  0  0  0
   14.7860   39.0710   76.0800 O   0  0  0  0  0  0  0  0  0  0  0  0
   26.7780   61.1390   96.8350 O   0  0  0  0  0  0  0  0  0  0  0  0
    0.8080   -5.8510   92.5640 O   0  0  0  0  0  0  0  0  0  0  0  0
   13.8110    1.8230   96.7720 O   0  0  0  0  0  0  0  0  0  0  0  0
    4.0830   28.2200  125.8560 O   0  0  0  0  0  0  0  0  0  0  0  0
   -2.1000   -7.0550   99.7050 O   0  0  0  0  0  0  0  0  0  0  0  0
   28.8770   30.2780  101.5840 O   0  0  0  0  0  0  0  0  0  0  0  0
    6.4990  -40.8300  117.5200 O   0  0  0  0  0  0  0  0  0  0  0  0
   30.0780   31.6970  127.0030 O   0  0  0  0  0  0  0  0  0  0  0  0
   34.4980  -16.8000  133.4850 O   0  0  0  0  0  0  0  0  0  0  0  0
   41.6660   31.1600  124.2160 O   0  0  0  0  0  0  0  0  0  0  0  0
   27.8800   27.4120  112.0820 O   0  0  0  0  0  0  0  0  0  0  0  0
  -11.2980   13.9130   94.6510 O   0  0  0  0  0  0  0  0  0  0  0  0
   26.0370   43.5330   87.7700 O   0  0  0  0  0  0  0  0  0  0  0  0
  -18.6510    4.0860  120.0020 O   0  0  0  0  0  0  0  0  0  0  0  0
   36.8580   16.9670  126.2880 O   0  0  0  0  0  0  0  0  0  0  0  0
   10.7110   -6.5140  107.6420 O   0  0  0  0  0  0  0  0  0  0  0  0
   -5.8120   58.8700  120.1710 O   0  0  0  0  0  0  0  0  0  0  0  0
  -12.2440   39.7540   75.9960 O   0  0  0  0  0  0  0  0  0  0  0  0
   39.0310  -13.8660  126.8540 O   0  0  0  0  0  0  0  0  0  0  0  0
   25.5810    5.9510  111.7390 O   0  0  0  0  0  0  0  0  0  0  0  0
   31.4470   11.6020   89.9980 O   0  0  0  0  0  0  0  0  0  0  0  0
   -5.2630   58.6910   86.0630 O   0  0  0  0  0  0  0  0  0  0  0  0
   -4.0380  -17.9250  123.5600 O   0  0  0  0  0  0  0  0  0  0  0  0
    4.0290   12.6820   77.4050 O   0  0  0  0  0  0  0  0  0  0  0  0
    9.3950   39.2280   98.8530 O   0  0  0  0  0  0  0  0  0  0  0  0
   -4.1620   23.7820  123.8750 O   0  0  0  0  0  0  0  0  0  0  0  0
  -14.5460   28.2320  121.3450 O   0  0  0  0  0  0  0  0  0  0  0  0
    3.8040   35.3950  109.2010 O   0  0  0  0  0  0  0  0  0  0  0  0
    7.6240   11.0810   79.1400 O   0  0  0  0  0  0  0  0  0  0  0  0
   30.9380   37.4160  111.2080 O   0  0  0  0  0  0  0  0  0  0  0  0
  -11.4250   53.6870   88.8570 O   0  0  0  0  0  0  0  0  0  0  0  0
    1.0820    2.7610   80.5770 O   0  0  0  0  0  0  0  0  0  0  0  0
   19.5670    7.0970   86.2740 O   0  0  0  0  0  0  0  0  0  0  0  0
    3.1580   16.7040  125.4530 O   0  0  0  0  0  0  0  0  0  0  0  0
    2.8930   25.9470  110.1920 O   0  0  0  0  0  0  0  0  0  0  0  0
    7.6530   -1.6440  106.1420 O   0  0  0  0  0  0  0  0  0  0  0  0
   26.4430   15.7230  137.2540 O   0  0  0  0  0  0  0  0  0  0  0  0
    6.7090   28.6600  110.5690 O   0  0  0  0  0  0  0  0  0  0  0  0
   44.1720   22.7040  105.6860 O   0  0  0  0  0  0  0  0  0  0  0  0
   29.4300  -22.7240  131.6890 O   0  0  0  0  0  0  0  0  0  0  0  0
  -12.4110   15.5490  118.9660 O   0  0  0  0  0  0  0  0  0  0  0  0
   24.2570   28.0910   83.4320 O   0  0  0  0  0  0  0  0  0  0  0  0
   16.7460  -37.5720  105.8710 O   0  0  0  0  0  0  0  0  0  0  0  0
    1.5050   36.0300   79.4940 O   0  0  0  0  0  0  0  0  0  0  0  0
  -13.0340   29.5580  118.0350 O   0  0  0  0  0  0  0  0  0  0  0  0
    0.2630   29.6460   80.0800 O   0  0  0  0  0  0  0  0  0  0  0  0
   28.9550  -24.5800  125.2150 O   0  0  0  0  0  0  0  0  0  0  0  0
   -3.6210   64.7090  116.1110 O   0  0  0  0  0  0  0  0  0  0  0  0
  -13.4630   57.4530  117.1610 O   0  0  0  0  0  0  0  0  0  0  0  0
   28.7000   37.3920  124.5410 O   0  0  0  0  0  0  0  0  0  0  0  0
   31.0070   34.1340  124.7450 O   0  0  0  0  0  0  0  0  0  0  0  0
   -7.0190   60.8790   98.9770 O   0  0  0  0  0  0  0  0  0  0  0  0
   40.2030  -14.5470  123.0760 O   0  0  0  0  0  0  0  0  0  0  0  0
   20.2960   16.0820  137.7890 O   0  0  0  0  0  0  0  0  0  0  0  0
   -1.3300   -3.0410   78.7560 O   0  0  0  0  0  0  0  0  0  0  0  0
  -21.5280    4.1330  113.1240 O   0  0  0  0  0  0  0  0  0  0  0  0
  -16.3370   59.2310  113.7700 O   0  0  0  0  0  0  0  0  0  0  0  0
    9.0570   33.7430  119.8690 O   0  0  0  0  0  0  0  0  0  0  0  0
    2.4870  -35.1300  106.7000 O   0  0  0  0  0  0  0  0  0  0  0  0
    6.3070   18.8320   77.4980 O   0  0  0  0  0  0  0  0  0  0  0  0
   -6.9290   34.4840  123.0860 O   0  0  0  0  0  0  0  0  0  0  0  0
   11.7840   33.0390   81.8250 O   0  0  0  0  0  0  0  0  0  0  0  0
   19.5520   56.1090  109.8420 O   0  0  0  0  0  0  0  0  0  0  0  0
   13.8590   -0.1530  108.7870 O   0  0  0  0  0  0  0  0  0  0  0  0
   23.7590    7.2830  114.4820 O   0  0  0  0  0  0  0  0  0  0  0  0
   27.6530    7.0740   93.6150 O   0  0  0  0  0  0  0  0  0  0  0  0
   32.1950   36.9910  114.7890 O   0  0  0  0  0  0  0  0  0  0  0  0
   25.3260   35.7530   92.6530 O   0  0  0  0  0  0  0  0  0  0  0  0
    1.2220   53.1320  110.7680 O   0  0  0  0  0  0  0  0  0  0  0  0
    5.9150   -3.3470   85.8120 O   0  0  0  0  0  0  0  0  0  0  0  0
   23.8770   -3.2450  102.9610 O   0  0  0  0  0  0  0  0  0  0  0  0
   14.4670   67.5980  100.2270 O   0  0  0  0  0  0  0  0  0  0  0  0
   -9.0030   10.7490   79.3560 O   0  0  0  0  0  0  0  0  0  0  0  0
   15.2280  -29.7200  122.8340 O   0  0  0  0  0  0  0  0  0  0  0  0
   29.7590    7.8920   90.5040 O   0  0  0  0  0  0  0  0  0  0  0  0
  -13.7490   15.9170   91.6060 O   0  0  0  0  0  0  0  0  0  0  0  0
   19.4880   20.0080  135.6100 O   0  0  0  0  0  0  0  0  0  0  0  0
   15.4990  -25.3480  112.6960 O   0  0  0  0  0  0  0  0  0  0  0  0
  -22.4100   11.0670  110.9790 O   0  0  0  0  0  0  0  0  0  0  0  0
    7.8710   11.8710  123.0020 O   0  0  0  0  0  0  0  0  0  0  0  0
  -13.8180   25.7940  108.0380 O   0  0  0  0  0  0  0  0  0  0  0  0
    4.8600   32.3790   81.1830 O   0  0  0  0  0  0  0  0  0  0  0  0
   38.5860   21.7930  118.8380 O   0  0  0  0  0  0  0  0  0  0  0  0
   37.4840   13.3850  100.5750 O   0  0  0  0  0  0  0  0  0  0  0  0
M  END
