MODEL 1
REMARK VINA RESULT:    -8.186      0.000      0.000
REMARK INTER + INTRA:         -15.310
REMARK INTER:                 -12.971
REMARK INTRA:                  -2.339
REMARK UNBOUND:                -2.339
REMARK  10 active torsions:
REMARK  status: ('A' for Active; 'I' for Inactive)
REMARK    1  A    between atoms: C2_2  and  C4_4 
REMARK    2  A    between atoms: C6_6  and  N2_12 
REMARK       I    between atoms: N2_12  and  C9_13 
REMARK    3  A    between atoms: C9_13  and  C10_15 
REMARK    4  A    between atoms: C10_15  and  C11_16 
REMARK    5  A    between atoms: C10_15  and  N3_23 
REMARK    6  A    between atoms: C11_16  and  C12_17 
REMARK    7  A    between atoms: N3_23  and  C18_24 
REMARK    8  A    between atoms: C21_28  and  C22_30 
REMARK    9  A    between atoms: C22_30  and  C23_31 
REMARK   10  A    between atoms: C22_30  and  O4_37 
ROOT
HETATM    1  C10 UNL     1       5.948 -11.176   5.036  1.00  0.00     0.196 C 
ENDROOT
BRANCH   1   2
HETATM    2  C9  UNL     1       5.808 -11.576   3.586  1.00  0.00     0.242 C 
HETATM    3  N2  UNL     1       4.557 -11.369   2.914  1.00  0.00    -0.346 N 
HETATM    4  H13 UNL     1       3.717 -11.133   3.489  1.00  0.00     0.163 HD
HETATM    5  O3  UNL     1       6.802 -12.025   2.951  1.00  0.00    -0.271 OA
BRANCH   3   6
HETATM    6  C6  UNL     1       4.390 -11.570   1.472  1.00  0.00     0.177 C 
HETATM    7  C5  UNL     1       3.466 -10.476   0.902  1.00  0.00     0.049 C 
HETATM    8  C4  UNL     1       3.106 -10.718  -0.583  1.00  0.00     0.084 C 
HETATM    9  C8  UNL     1       2.438 -12.069  -0.679  1.00  0.00     0.228 C 
HETATM   10  N1  UNL     1       2.880 -13.152   0.147  1.00  0.00    -0.296 N 
HETATM   11  O2  UNL     1       1.498 -12.251  -1.499  1.00  0.00    -0.273 OA
HETATM   12  C7  UNL     1       3.827 -12.944   1.202  1.00  0.00     0.247 C 
HETATM   13  H12 UNL     1       2.475 -14.105   0.003  1.00  0.00     0.171 HD
HETATM   14  O1  UNL     1       4.233 -13.931   1.874  1.00  0.00    -0.271 OA
BRANCH   8  15
HETATM   15  C2  UNL     1       4.323 -10.626  -1.558  1.00  0.00    -0.010 C 
HETATM   16  C1  UNL     1       3.867 -10.727  -3.025  1.00  0.00     0.010 C 
HETATM   17  C3  UNL     1       5.120  -9.321  -1.372  1.00  0.00     0.010 C 
ENDBRANCH   8  15
ENDBRANCH   3   6
ENDBRANCH   1   2
BRANCH   1  18
HETATM   18  C11 UNL     1       7.430 -10.974   5.413  1.00  0.00     0.074 C 
BRANCH  18  19
HETATM   19  C12 UNL     1       7.622  -9.902   6.459  1.00  0.00    -0.056 A 
HETATM   20  C13 UNL     1       7.868 -10.254   7.798  1.00  0.00     0.007 A 
HETATM   21  C14 UNL     1       8.096  -9.262   8.756  1.00  0.00     0.001 A 
HETATM   22  C15 UNL     1       8.082  -7.915   8.386  1.00  0.00     0.000 A 
HETATM   23  C16 UNL     1       7.839  -7.556   7.058  1.00  0.00     0.001 A 
HETATM   24  C17 UNL     1       7.611  -8.545   6.096  1.00  0.00     0.007 A 
ENDBRANCH  18  19
ENDBRANCH   1  18
BRANCH   1  25
HETATM   25  N3  UNL     1       5.315 -12.154   5.932  1.00  0.00    -0.209 N 
HETATM   26  H22 UNL     1       4.277 -12.145   6.049  1.00  0.00     0.178 HD
BRANCH  25  27
HETATM   27  C18 UNL     1       6.024 -13.283   6.461  1.00  0.00     0.723 A 
HETATM   28  N4  UNL     1       6.289 -14.365   5.681  1.00  0.00    -0.075 NA
HETATM   29  C19 UNL     1       6.942 -15.444   6.182  1.00  0.00     0.138 A 
HETATM   30  C20 UNL     1       7.355 -15.454   7.513  1.00  0.00     0.050 A 
HETATM   31  C21 UNL     1       7.103 -14.324   8.305  1.00  0.00     0.088 A 
HETATM   32  N5  UNL     1       6.424 -13.275   7.760  1.00  0.00    -0.065 NA
BRANCH  31  33
HETATM   33  C22 UNL     1       7.469 -14.311   9.772  1.00  0.00     0.206 C 
BRANCH  33  34
HETATM   34  C23 UNL     1       8.548 -13.280  10.048  1.00  0.00    -0.024 A 
HETATM   35  C24 UNL     1       8.432 -12.403  11.142  1.00  0.00     0.010 A 
HETATM   36  C25 UNL     1       9.436 -11.465  11.402  1.00  0.00     0.001 A 
HETATM   37  C26 UNL     1      10.564 -11.399  10.579  1.00  0.00     0.000 A 
HETATM   38  C27 UNL     1      10.691 -12.273   9.497  1.00  0.00     0.001 A 
HETATM   39  C28 UNL     1       9.690 -13.212   9.231  1.00  0.00     0.010 A 
ENDBRANCH  33  34
BRANCH  33  40
HETATM   40  O4  UNL     1       7.932 -15.596  10.158  1.00  0.00    -0.380 OA
HETATM   41  C29 UNL     1       7.140 -16.114  11.205  1.00  0.00     0.202 C 
ENDBRANCH  33  40
ENDBRANCH  31  33
ENDBRANCH  25  27
ENDBRANCH   1  25
TORSDOF 10
ENDMDL
MODEL 2
REMARK VINA RESULT:    -7.530      2.090      2.470
REMARK INTER + INTRA:         -14.271
REMARK INTER:                 -12.009
REMARK INTRA:                  -2.262
REMARK UNBOUND:                -2.339
REMARK  10 active torsions:
REMARK  status: ('A' for Active; 'I' for Inactive)
REMARK    1  A    between atoms: C2_2  and  C4_4 
REMARK    2  A    between atoms: C6_6  and  N2_12 
REMARK       I    between atoms: N2_12  and  C9_13 
REMARK    3  A    between atoms: C9_13  and  C10_15 
REMARK    4  A    between atoms: C10_15  and  C11_16 
REMARK    5  A    between atoms: C10_15  and  N3_23 
REMARK    6  A    between atoms: C11_16  and  C12_17 
REMARK    7  A    between atoms: N3_23  and  C18_24 
REMARK    8  A    between atoms: C21_28  and  C22_30 
REMARK    9  A    between atoms: C22_30  and  C23_31 
REMARK   10  A    between atoms: C22_30  and  O4_37 
ROOT
HETATM    1  C10 UNL     1       6.991 -11.450   4.666  1.00  0.00     0.196 C 
ENDROOT
BRANCH   1   2
HETATM    2  C9  UNL     1       6.148 -11.999   3.540  1.00  0.00     0.242 C 
HETATM    3  N2  UNL     1       5.742 -11.129   2.472  1.00  0.00    -0.346 N 
HETATM    4  H13 UNL     1       5.869 -10.099   2.595  1.00  0.00     0.163 HD
HETATM    5  O3  UNL     1       5.858 -13.227   3.501  1.00  0.00    -0.271 OA
BRANCH   3   6
HETATM    6  C6  UNL     1       5.072 -11.618   1.264  1.00  0.00     0.177 C 
HETATM    7  C5  UNL     1       5.846 -11.146   0.018  1.00  0.00     0.049 C 
HETATM    8  C4  UNL     1       5.108 -11.479  -1.300  1.00  0.00     0.084 C 
HETATM    9  C8  UNL     1       3.752 -10.818  -1.247  1.00  0.00     0.228 C 
HETATM   10  N1  UNL     1       3.033 -10.748  -0.009  1.00  0.00    -0.296 N 
HETATM   11  O2  UNL     1       3.241 -10.341  -2.295  1.00  0.00    -0.273 OA
HETATM   12  C7  UNL     1       3.645 -11.128   1.229  1.00  0.00     0.247 C 
HETATM   13  H12 UNL     1       2.056 -10.376  -0.005  1.00  0.00     0.171 HD
HETATM   14  O1  UNL     1       2.965 -11.103   2.290  1.00  0.00    -0.271 OA
BRANCH   8  15
HETATM   15  C2  UNL     1       4.975 -13.009  -1.588  1.00  0.00    -0.010 C 
HETATM   16  C1  UNL     1       4.562 -13.264  -3.049  1.00  0.00     0.010 C 
HETATM   17  C3  UNL     1       6.281 -13.771  -1.298  1.00  0.00     0.010 C 
ENDBRANCH   8  15
ENDBRANCH   3   6
ENDBRANCH   1   2
BRANCH   1  18
HETATM   18  C11 UNL     1       6.618  -9.986   4.974  1.00  0.00     0.074 C 
BRANCH  18  19
HETATM   19  C12 UNL     1       7.112  -9.532   6.327  1.00  0.00    -0.056 A 
HETATM   20  C13 UNL     1       7.199 -10.445   7.393  1.00  0.00     0.007 A 
HETATM   21  C14 UNL     1       7.704 -10.036   8.630  1.00  0.00     0.001 A 
HETATM   22  C15 UNL     1       8.127  -8.716   8.812  1.00  0.00     0.000 A 
HETATM   23  C16 UNL     1       8.045  -7.802   7.758  1.00  0.00     0.001 A 
HETATM   24  C17 UNL     1       7.541  -8.208   6.518  1.00  0.00     0.007 A 
ENDBRANCH  18  19
ENDBRANCH   1  18
BRANCH   1  25
HETATM   25  N3  UNL     1       8.427 -11.567   4.376  1.00  0.00    -0.209 N 
HETATM   26  H22 UNL     1       8.894 -10.837   3.792  1.00  0.00     0.178 HD
BRANCH  25  27
HETATM   27  C18 UNL     1       9.275 -12.499   5.061  1.00  0.00     0.723 A 
HETATM   28  N4  UNL     1      10.424 -12.946   4.485  1.00  0.00    -0.075 NA
HETATM   29  C19 UNL     1      11.220 -13.843   5.121  1.00  0.00     0.138 A 
HETATM   30  C20 UNL     1      10.867 -14.318   6.382  1.00  0.00     0.050 A 
HETATM   31  C21 UNL     1       9.696 -13.833   6.982  1.00  0.00     0.088 A 
HETATM   32  N5  UNL     1       8.919 -12.950   6.292  1.00  0.00    -0.065 NA
BRANCH  31  33
HETATM   33  C22 UNL     1       9.233 -14.368   8.319  1.00  0.00     0.206 C 
BRANCH  33  34
HETATM   34  C23 UNL     1       9.422 -13.328   9.408  1.00  0.00    -0.024 A 
HETATM   35  C24 UNL     1      10.538 -12.473   9.390  1.00  0.00     0.010 A 
HETATM   36  C25 UNL     1      10.701 -11.505  10.387  1.00  0.00     0.001 A 
HETATM   37  C26 UNL     1       9.750 -11.379  11.403  1.00  0.00     0.000 A 
HETATM   38  C27 UNL     1       8.633 -12.217  11.423  1.00  0.00     0.001 A 
HETATM   39  C28 UNL     1       8.465 -13.188  10.429  1.00  0.00     0.010 A 
ENDBRANCH  33  34
BRANCH  33  40
HETATM   40  O4  UNL     1       9.972 -15.535   8.645  1.00  0.00    -0.380 OA
HETATM   41  C29 UNL     1       9.109 -16.556   9.097  1.00  0.00     0.202 C 
ENDBRANCH  33  40
ENDBRANCH  31  33
ENDBRANCH  25  27
ENDBRANCH   1  25
TORSDOF 10
ENDMDL
MODEL 3
REMARK VINA RESULT:    -7.351      2.085      2.595
REMARK INTER + INTRA:         -13.987
REMARK INTER:                 -12.320
REMARK INTRA:                  -1.667
REMARK UNBOUND:                -2.339
REMARK  10 active torsions:
REMARK  status: ('A' for Active; 'I' for Inactive)
REMARK    1  A    between atoms: C2_2  and  C4_4 
REMARK    2  A    between atoms: C6_6  and  N2_12 
REMARK       I    between atoms: N2_12  and  C9_13 
REMARK    3  A    between atoms: C9_13  and  C10_15 
REMARK    4  A    between atoms: C10_15  and  C11_16 
REMARK    5  A    between atoms: C10_15  and  N3_23 
REMARK    6  A    between atoms: C11_16  and  C12_17 
REMARK    7  A    between atoms: N3_23  and  C18_24 
REMARK    8  A    between atoms: C21_28  and  C22_30 
REMARK    9  A    between atoms: C22_30  and  C23_31 
REMARK   10  A    between atoms: C22_30  and  O4_37 
ROOT
HETATM    1  C10 UNL     1       7.033 -11.332   4.908  1.00  0.00     0.196 C 
ENDROOT
BRANCH   1   2
HETATM    2  C9  UNL     1       5.858 -11.793   4.078  1.00  0.00     0.242 C 
HETATM    3  N2  UNL     1       5.497 -11.062   2.896  1.00  0.00    -0.346 N 
HETATM    4  H13 UNL     1       5.926 -10.121   2.744  1.00  0.00     0.163 HD
HETATM    5  O3  UNL     1       5.240 -12.850   4.382  1.00  0.00    -0.271 OA
BRANCH   3   6
HETATM    6  C6  UNL     1       4.485 -11.537   1.950  1.00  0.00     0.177 C 
HETATM    7  C5  UNL     1       3.154 -11.770   2.692  1.00  0.00     0.049 C 
HETATM    8  C4  UNL     1       2.082 -12.432   1.795  1.00  0.00     0.084 C 
HETATM    9  C8  UNL     1       2.643 -13.745   1.304  1.00  0.00     0.228 C 
HETATM   10  N1  UNL     1       4.033 -13.859   0.979  1.00  0.00    -0.296 N 
HETATM   11  O2  UNL     1       1.884 -14.742   1.163  1.00  0.00    -0.273 OA
HETATM   12  C7  UNL     1       4.956 -12.805   1.280  1.00  0.00     0.247 C 
HETATM   13  H12 UNL     1       4.388 -14.743   0.549  1.00  0.00     0.171 HD
HETATM   14  O1  UNL     1       6.162 -12.919   0.932  1.00  0.00    -0.271 OA
BRANCH   8  15
HETATM   15  C2  UNL     1       1.611 -11.543   0.600  1.00  0.00    -0.010 C 
HETATM   16  C1  UNL     1       0.169 -11.888   0.187  1.00  0.00     0.010 C 
HETATM   17  C3  UNL     1       1.692 -10.040   0.926  1.00  0.00     0.010 C 
ENDBRANCH   8  15
ENDBRANCH   3   6
ENDBRANCH   1   2
BRANCH   1  18
HETATM   18  C11 UNL     1       7.024  -9.799   5.075  1.00  0.00     0.074 C 
BRANCH  18  19
HETATM   19  C12 UNL     1       7.473  -9.362   6.449  1.00  0.00    -0.056 A 
HETATM   20  C13 UNL     1       7.696  -8.001   6.722  1.00  0.00     0.007 A 
HETATM   21  C14 UNL     1       8.062  -7.592   8.007  1.00  0.00     0.001 A 
HETATM   22  C15 UNL     1       8.206  -8.536   9.028  1.00  0.00     0.000 A 
HETATM   23  C16 UNL     1       7.985  -9.890   8.766  1.00  0.00     0.001 A 
HETATM   24  C17 UNL     1       7.619 -10.304   7.481  1.00  0.00     0.007 A 
ENDBRANCH  18  19
ENDBRANCH   1  18
BRANCH   1  25
HETATM   25  N3  UNL     1       8.310 -11.782   4.337  1.00  0.00    -0.209 N 
HETATM   26  H22 UNL     1       8.695 -11.298   3.494  1.00  0.00     0.178 HD
BRANCH  25  27
HETATM   27  C18 UNL     1       9.182 -12.689   5.025  1.00  0.00     0.723 A 
HETATM   28  N4  UNL     1      10.314 -13.151   4.430  1.00  0.00    -0.075 NA
HETATM   29  C19 UNL     1      11.132 -14.025   5.070  1.00  0.00     0.138 A 
HETATM   30  C20 UNL     1      10.819 -14.461   6.356  1.00  0.00     0.050 A 
HETATM   31  C21 UNL     1       9.663 -13.960   6.975  1.00  0.00     0.088 A 
HETATM   32  N5  UNL     1       8.864 -13.102   6.280  1.00  0.00    -0.065 NA
BRANCH  31  33
HETATM   33  C22 UNL     1       9.242 -14.453   8.341  1.00  0.00     0.206 C 
BRANCH  33  34
HETATM   34  C23 UNL     1       9.479 -13.387   9.394  1.00  0.00    -0.024 A 
HETATM   35  C24 UNL     1       8.576 -13.224  10.459  1.00  0.00     0.010 A 
HETATM   36  C25 UNL     1       8.805 -12.250  11.436  1.00  0.00     0.001 A 
HETATM   37  C26 UNL     1       9.940 -11.437  11.362  1.00  0.00     0.000 A 
HETATM   38  C27 UNL     1      10.848 -11.598  10.313  1.00  0.00     0.001 A 
HETATM   39  C28 UNL     1      10.622 -12.570   9.332  1.00  0.00     0.010 A 
ENDBRANCH  33  34
BRANCH  33  40
HETATM   40  O4  UNL     1       9.981 -15.619   8.674  1.00  0.00    -0.380 OA
HETATM   41  C29 UNL     1       9.116 -16.640   9.124  1.00  0.00     0.202 C 
ENDBRANCH  33  40
ENDBRANCH  31  33
ENDBRANCH  25  27
ENDBRANCH   1  25
TORSDOF 10
ENDMDL
MODEL 4
REMARK VINA RESULT:    -7.185      2.556      9.955
REMARK INTER + INTRA:         -13.724
REMARK INTER:                 -11.124
REMARK INTRA:                  -2.600
REMARK UNBOUND:                -2.339
REMARK  10 active torsions:
REMARK  status: ('A' for Active; 'I' for Inactive)
REMARK    1  A    between atoms: C2_2  and  C4_4 
REMARK    2  A    between atoms: C6_6  and  N2_12 
REMARK       I    between atoms: N2_12  and  C9_13 
REMARK    3  A    between atoms: C9_13  and  C10_15 
REMARK    4  A    between atoms: C10_15  and  C11_16 
REMARK    5  A    between atoms: C10_15  and  N3_23 
REMARK    6  A    between atoms: C11_16  and  C12_17 
REMARK    7  A    between atoms: N3_23  and  C18_24 
REMARK    8  A    between atoms: C21_28  and  C22_30 
REMARK    9  A    between atoms: C22_30  and  C23_31 
REMARK   10  A    between atoms: C22_30  and  O4_37 
ROOT
HETATM    1  C10 UNL     1       6.547 -12.849   3.201  1.00  0.00     0.196 C 
ENDROOT
BRANCH   1   2
HETATM    2  C9  UNL     1       7.492 -12.259   4.221  1.00  0.00     0.242 C 
HETATM    3  N2  UNL     1       6.970 -11.750   5.458  1.00  0.00    -0.346 N 
HETATM    4  H13 UNL     1       5.937 -11.618   5.544  1.00  0.00     0.163 HD
HETATM    5  O3  UNL     1       8.738 -12.273   4.017  1.00  0.00    -0.271 OA
BRANCH   3   6
HETATM    6  C6  UNL     1       7.831 -11.320   6.563  1.00  0.00     0.177 C 
HETATM    7  C5  UNL     1       7.323 -11.934   7.882  1.00  0.00     0.049 C 
HETATM    8  C4  UNL     1       8.078 -11.393   9.118  1.00  0.00     0.084 C 
HETATM    9  C8  UNL     1       7.906  -9.893   9.140  1.00  0.00     0.228 C 
HETATM   10  N1  UNL     1       7.892  -9.151   7.915  1.00  0.00    -0.296 N 
HETATM   11  O2  UNL     1       7.790  -9.287  10.239  1.00  0.00    -0.273 OA
HETATM   12  C7  UNL     1       7.855  -9.814   6.645  1.00  0.00     0.247 C 
HETATM   13  H12 UNL     1       7.870  -8.106   7.949  1.00  0.00     0.171 HD
HETATM   14  O1  UNL     1       7.897  -9.129   5.587  1.00  0.00    -0.271 OA
BRANCH   8  15
HETATM   15  C2  UNL     1       9.590 -11.783   9.165  1.00  0.00    -0.010 C 
HETATM   16  C1  UNL     1      10.208 -11.442  10.533  1.00  0.00     0.010 C 
HETATM   17  C3  UNL     1       9.813 -13.279   8.875  1.00  0.00     0.010 C 
ENDBRANCH   8  15
ENDBRANCH   3   6
ENDBRANCH   1   2
BRANCH   1  18
HETATM   18  C11 UNL     1       5.722 -13.998   3.813  1.00  0.00     0.074 C 
BRANCH  18  19
HETATM   19  C12 UNL     1       4.255 -13.910   3.465  1.00  0.00    -0.056 A 
HETATM   20  C13 UNL     1       3.445 -12.923   4.053  1.00  0.00     0.007 A 
HETATM   21  C14 UNL     1       2.099 -12.810   3.692  1.00  0.00     0.001 A 
HETATM   22  C15 UNL     1       1.553 -13.679   2.743  1.00  0.00     0.000 A 
HETATM   23  C16 UNL     1       2.351 -14.662   2.153  1.00  0.00     0.001 A 
HETATM   24  C17 UNL     1       3.698 -14.779   2.511  1.00  0.00     0.007 A 
ENDBRANCH  18  19
ENDBRANCH   1  18
BRANCH   1  25
HETATM   25  N3  UNL     1       7.260 -13.306   2.001  1.00  0.00    -0.209 N 
HETATM   26  H22 UNL     1       8.140 -13.860   2.106  1.00  0.00     0.178 HD
BRANCH  25  27
HETATM   27  C18 UNL     1       6.678 -13.247   0.692  1.00  0.00     0.723 A 
HETATM   28  N4  UNL     1       6.895 -14.240  -0.211  1.00  0.00    -0.075 NA
HETATM   29  C19 UNL     1       6.362 -14.179  -1.458  1.00  0.00     0.138 A 
HETATM   30  C20 UNL     1       5.577 -13.089  -1.829  1.00  0.00     0.050 A 
HETATM   31  C21 UNL     1       5.335 -12.081  -0.884  1.00  0.00     0.088 A 
HETATM   32  N5  UNL     1       5.911 -12.179   0.347  1.00  0.00    -0.065 NA
BRANCH  31  33
HETATM   33  C22 UNL     1       4.547 -10.845  -1.258  1.00  0.00     0.206 C 
BRANCH  33  34
HETATM   34  C23 UNL     1       3.172 -10.869  -0.617  1.00  0.00    -0.024 A 
HETATM   35  C24 UNL     1       2.245 -11.870  -0.958  1.00  0.00     0.010 A 
HETATM   36  C25 UNL     1       0.984 -11.899  -0.354  1.00  0.00     0.001 A 
HETATM   37  C26 UNL     1       0.642 -10.936   0.599  1.00  0.00     0.000 A 
HETATM   38  C27 UNL     1       1.560  -9.944   0.952  1.00  0.00     0.001 A 
HETATM   39  C28 UNL     1       2.823  -9.910   0.350  1.00  0.00     0.010 A 
ENDBRANCH  33  34
BRANCH  33  40
HETATM   40  O4  UNL     1       4.411 -10.777  -2.669  1.00  0.00    -0.380 OA
HETATM   41  C29 UNL     1       4.194  -9.445  -3.082  1.00  0.00     0.202 C 
ENDBRANCH  33  40
ENDBRANCH  31  33
ENDBRANCH  25  27
ENDBRANCH   1  25
TORSDOF 10
ENDMDL
MODEL 5
REMARK VINA RESULT:    -7.175      2.055      4.448
REMARK INTER + INTRA:         -13.709
REMARK INTER:                 -11.124
REMARK INTRA:                  -2.585
REMARK UNBOUND:                -2.339
REMARK  10 active torsions:
REMARK  status: ('A' for Active; 'I' for Inactive)
REMARK    1  A    between atoms: C2_2  and  C4_4 
REMARK    2  A    between atoms: C6_6  and  N2_12 
REMARK       I    between atoms: N2_12  and  C9_13 
REMARK    3  A    between atoms: C9_13  and  C10_15 
REMARK    4  A    between atoms: C10_15  and  C11_16 
REMARK    5  A    between atoms: C10_15  and  N3_23 
REMARK    6  A    between atoms: C11_16  and  C12_17 
REMARK    7  A    between atoms: N3_23  and  C18_24 
REMARK    8  A    between atoms: C21_28  and  C22_30 
REMARK    9  A    between atoms: C22_30  and  C23_31 
REMARK   10  A    between atoms: C22_30  and  O4_37 
ROOT
HETATM    1  C10 UNL     1       6.657 -11.938   4.091  1.00  0.00     0.196 C 
ENDROOT
BRANCH   1   2
HETATM    2  C9  UNL     1       5.981 -12.174   2.761  1.00  0.00     0.242 C 
HETATM    3  N2  UNL     1       5.153 -11.146   2.197  1.00  0.00    -0.346 N 
HETATM    4  H13 UNL     1       4.877 -10.341   2.804  1.00  0.00     0.163 HD
HETATM    5  O3  UNL     1       6.195 -13.239   2.118  1.00  0.00    -0.271 OA
BRANCH   3   6
HETATM    6  C6  UNL     1       4.603 -11.228   0.841  1.00  0.00     0.177 C 
HETATM    7  C5  UNL     1       5.713 -10.927  -0.185  1.00  0.00     0.049 C 
HETATM    8  C4  UNL     1       5.173 -10.828  -1.631  1.00  0.00     0.084 C 
HETATM    9  C8  UNL     1       4.128  -9.738  -1.658  1.00  0.00     0.228 C 
HETATM   10  N1  UNL     1       3.251  -9.554  -0.540  1.00  0.00    -0.296 N 
HETATM   11  O2  UNL     1       4.015  -8.998  -2.671  1.00  0.00    -0.273 OA
HETATM   12  C7  UNL     1       3.454 -10.261   0.689  1.00  0.00     0.247 C 
HETATM   13  H12 UNL     1       2.471  -8.862  -0.610  1.00  0.00     0.171 HD
HETATM   14  O1  UNL     1       2.631 -10.113   1.633  1.00  0.00    -0.271 OA
BRANCH   8  15
HETATM   15  C2  UNL     1       4.597 -12.169  -2.191  1.00  0.00    -0.010 C 
HETATM   16  C1  UNL     1       4.375 -12.084  -3.712  1.00  0.00     0.010 C 
HETATM   17  C3  UNL     1       5.514 -13.367  -1.886  1.00  0.00     0.010 C 
ENDBRANCH   8  15
ENDBRANCH   3   6
ENDBRANCH   1   2
BRANCH   1  18
HETATM   18  C11 UNL     1       6.065 -12.853   5.182  1.00  0.00     0.074 C 
BRANCH  18  19
HETATM   19  C12 UNL     1       6.814 -14.157   5.316  1.00  0.00    -0.056 A 
HETATM   20  C13 UNL     1       8.220 -14.171   5.317  1.00  0.00     0.007 A 
HETATM   21  C14 UNL     1       8.912 -15.373   5.492  1.00  0.00     0.001 A 
HETATM   22  C15 UNL     1       8.208 -16.567   5.667  1.00  0.00     0.000 A 
HETATM   23  C16 UNL     1       6.810 -16.563   5.668  1.00  0.00     0.001 A 
HETATM   24  C17 UNL     1       6.114 -15.363   5.494  1.00  0.00     0.007 A 
ENDBRANCH  18  19
ENDBRANCH   1  18
BRANCH   1  25
HETATM   25  N3  UNL     1       6.576 -10.529   4.498  1.00  0.00    -0.209 N 
HETATM   26  H22 UNL     1       5.988  -9.867   3.943  1.00  0.00     0.178 HD
BRANCH  25  27
HETATM   27  C18 UNL     1       7.062 -10.066   5.765  1.00  0.00     0.723 A 
HETATM   28  N4  UNL     1       6.961  -8.755   6.112  1.00  0.00    -0.075 NA
HETATM   29  C19 UNL     1       7.438  -8.308   7.302  1.00  0.00     0.138 A 
HETATM   30  C20 UNL     1       8.040  -9.197   8.190  1.00  0.00     0.050 A 
HETATM   31  C21 UNL     1       8.117 -10.553   7.838  1.00  0.00     0.088 A 
HETATM   32  N5  UNL     1       7.644 -10.946   6.622  1.00  0.00    -0.065 NA
BRANCH  31  33
HETATM   33  C22 UNL     1       8.822 -11.546   8.736  1.00  0.00     0.206 C 
BRANCH  33  34
HETATM   34  C23 UNL     1       8.013 -12.823   8.863  1.00  0.00    -0.024 A 
HETATM   35  C24 UNL     1       8.660 -14.068   8.974  1.00  0.00     0.010 A 
HETATM   36  C25 UNL     1       7.912 -15.242   9.106  1.00  0.00     0.001 A 
HETATM   37  C26 UNL     1       6.516 -15.183   9.136  1.00  0.00     0.000 A 
HETATM   38  C27 UNL     1       5.865 -13.951   9.037  1.00  0.00     0.001 A 
HETATM   39  C28 UNL     1       6.609 -12.773   8.903  1.00  0.00     0.010 A 
ENDBRANCH  33  34
BRANCH  33  40
HETATM   40  O4  UNL     1       9.009 -10.974  10.022  1.00  0.00    -0.380 OA
HETATM   41  C29 UNL     1      10.291 -11.290  10.522  1.00  0.00     0.202 C 
ENDBRANCH  33  40
ENDBRANCH  31  33
ENDBRANCH  25  27
ENDBRANCH   1  25
TORSDOF 10
ENDMDL
MODEL 6
REMARK VINA RESULT:    -6.954     15.995     18.922
REMARK INTER + INTRA:         -13.358
REMARK INTER:                 -11.995
REMARK INTRA:                  -1.364
REMARK UNBOUND:                -2.339
REMARK  10 active torsions:
REMARK  status: ('A' for Active; 'I' for Inactive)
REMARK    1  A    between atoms: C2_2  and  C4_4 
REMARK    2  A    between atoms: C6_6  and  N2_12 
REMARK       I    between atoms: N2_12  and  C9_13 
REMARK    3  A    between atoms: C9_13  and  C10_15 
REMARK    4  A    between atoms: C10_15  and  C11_16 
REMARK    5  A    between atoms: C10_15  and  N3_23 
REMARK    6  A    between atoms: C11_16  and  C12_17 
REMARK    7  A    between atoms: N3_23  and  C18_24 
REMARK    8  A    between atoms: C21_28  and  C22_30 
REMARK    9  A    between atoms: C22_30  and  C23_31 
REMARK   10  A    between atoms: C22_30  and  O4_37 
ROOT
HETATM    1  C10 UNL     1      -4.955  -2.684  10.278  1.00  0.00     0.196 C 
ENDROOT
BRANCH   1   2
HETATM    2  C9  UNL     1      -5.483  -3.386  11.506  1.00  0.00     0.242 C 
HETATM    3  N2  UNL     1      -4.639  -4.311  12.209  1.00  0.00    -0.346 N 
HETATM    4  H13 UNL     1      -3.756  -4.626  11.748  1.00  0.00     0.163 HD
HETATM    5  O3  UNL     1      -6.632  -3.113  11.952  1.00  0.00    -0.271 OA
BRANCH   3   6
HETATM    6  C6  UNL     1      -5.012  -4.901  13.498  1.00  0.00     0.177 C 
HETATM    7  C5  UNL     1      -4.229  -4.206  14.629  1.00  0.00     0.049 C 
HETATM    8  C4  UNL     1      -4.442  -4.886  16.002  1.00  0.00     0.084 C 
HETATM    9  C8  UNL     1      -4.006  -6.325  15.874  1.00  0.00     0.228 C 
HETATM   10  N1  UNL     1      -4.250  -7.046  14.660  1.00  0.00    -0.296 N 
HETATM   11  O2  UNL     1      -3.440  -6.902  16.841  1.00  0.00    -0.273 OA
HETATM   12  C7  UNL     1      -4.738  -6.384  13.487  1.00  0.00     0.247 C 
HETATM   13  H12 UNL     1      -4.031  -8.068  14.618  1.00  0.00     0.171 HD
HETATM   14  O1  UNL     1      -4.990  -7.061  12.454  1.00  0.00    -0.271 OA
BRANCH   8  15
HETATM   15  C2  UNL     1      -5.904  -4.790  16.542  1.00  0.00    -0.010 C 
HETATM   16  C1  UNL     1      -6.483  -6.188  16.826  1.00  0.00     0.010 C 
HETATM   17  C3  UNL     1      -5.996  -3.942  17.824  1.00  0.00     0.010 C 
ENDBRANCH   8  15
ENDBRANCH   3   6
ENDBRANCH   1   2
BRANCH   1  18
HETATM   18  C11 UNL     1      -4.146  -3.652   9.392  1.00  0.00     0.074 C 
BRANCH  18  19
HETATM   19  C12 UNL     1      -5.000  -4.342   8.354  1.00  0.00    -0.056 A 
HETATM   20  C13 UNL     1      -6.193  -3.746   7.908  1.00  0.00     0.007 A 
HETATM   21  C14 UNL     1      -6.957  -4.360   6.911  1.00  0.00     0.001 A 
HETATM   22  C15 UNL     1      -6.536  -5.570   6.353  1.00  0.00     0.000 A 
HETATM   23  C16 UNL     1      -5.351  -6.169   6.789  1.00  0.00     0.001 A 
HETATM   24  C17 UNL     1      -4.584  -5.557   7.786  1.00  0.00     0.007 A 
ENDBRANCH  18  19
ENDBRANCH   1  18
BRANCH   1  25
HETATM   25  N3  UNL     1      -4.147  -1.508  10.630  1.00  0.00    -0.209 N 
HETATM   26  H22 UNL     1      -3.175  -1.642  10.987  1.00  0.00     0.178 HD
BRANCH  25  27
HETATM   27  C18 UNL     1      -4.535  -0.175  10.272  1.00  0.00     0.723 A 
HETATM   28  N4  UNL     1      -3.973   0.449   9.202  1.00  0.00    -0.075 NA
HETATM   29  C19 UNL     1      -4.322   1.718   8.870  1.00  0.00     0.138 A 
HETATM   30  C20 UNL     1      -5.270   2.402   9.629  1.00  0.00     0.050 A 
HETATM   31  C21 UNL     1      -5.865   1.744  10.716  1.00  0.00     0.088 A 
HETATM   32  N5  UNL     1      -5.464   0.477  11.020  1.00  0.00    -0.065 NA
BRANCH  31  33
HETATM   33  C22 UNL     1      -6.848   2.464  11.612  1.00  0.00     0.206 C 
BRANCH  33  34
HETATM   34  C23 UNL     1      -6.150   3.017  12.840  1.00  0.00    -0.024 A 
HETATM   35  C24 UNL     1      -6.125   2.281  14.038  1.00  0.00     0.010 A 
HETATM   36  C25 UNL     1      -5.467   2.786  15.163  1.00  0.00     0.001 A 
HETATM   37  C26 UNL     1      -4.824   4.025  15.101  1.00  0.00     0.000 A 
HETATM   38  C27 UNL     1      -4.834   4.759  13.912  1.00  0.00     0.001 A 
HETATM   39  C28 UNL     1      -5.492   4.259  12.784  1.00  0.00     0.010 A 
ENDBRANCH  33  34
BRANCH  33  40
HETATM   40  O4  UNL     1      -7.872   1.566  12.013  1.00  0.00    -0.380 OA
HETATM   41  C29 UNL     1      -9.101   1.918  11.415  1.00  0.00     0.202 C 
ENDBRANCH  33  40
ENDBRANCH  31  33
ENDBRANCH  25  27
ENDBRANCH   1  25
TORSDOF 10
ENDMDL
MODEL 7
REMARK VINA RESULT:    -6.888     23.932     26.498
REMARK INTER + INTRA:         -13.253
REMARK INTER:                 -10.919
REMARK INTRA:                  -2.334
REMARK UNBOUND:                -2.339
REMARK  10 active torsions:
REMARK  status: ('A' for Active; 'I' for Inactive)
REMARK    1  A    between atoms: C2_2  and  C4_4 
REMARK    2  A    between atoms: C6_6  and  N2_12 
REMARK       I    between atoms: N2_12  and  C9_13 
REMARK    3  A    between atoms: C9_13  and  C10_15 
REMARK    4  A    between atoms: C10_15  and  C11_16 
REMARK    5  A    between atoms: C10_15  and  N3_23 
REMARK    6  A    between atoms: C11_16  and  C12_17 
REMARK    7  A    between atoms: N3_23  and  C18_24 
REMARK    8  A    between atoms: C21_28  and  C22_30 
REMARK    9  A    between atoms: C22_30  and  C23_31 
REMARK   10  A    between atoms: C22_30  and  O4_37 
ROOT
HETATM    1  C10 UNL     1      -7.394   9.197  11.085  1.00  0.00     0.196 C 
ENDROOT
BRANCH   1   2
HETATM    2  C9  UNL     1      -7.680   9.694  12.483  1.00  0.00     0.242 C 
HETATM    3  N2  UNL     1      -8.654   9.014  13.290  1.00  0.00    -0.346 N 
HETATM    4  H13 UNL     1      -9.282   8.317  12.828  1.00  0.00     0.163 HD
HETATM    5  O3  UNL     1      -7.022  10.659  12.963  1.00  0.00    -0.271 OA
BRANCH   3   6
HETATM    6  C6  UNL     1      -8.866   9.326  14.706  1.00  0.00     0.177 C 
HETATM    7  C5  UNL     1      -8.768   8.033  15.539  1.00  0.00     0.049 C 
HETATM    8  C4  UNL     1      -9.148   8.253  17.022  1.00  0.00     0.084 C 
HETATM    9  C8  UNL     1     -10.556   8.794  17.060  1.00  0.00     0.228 C 
HETATM   10  N1  UNL     1     -11.005   9.708  16.053  1.00  0.00    -0.296 N 
HETATM   11  O2  UNL     1     -11.337   8.455  17.989  1.00  0.00    -0.273 OA
HETATM   12  C7  UNL     1     -10.208   9.988  14.895  1.00  0.00     0.247 C 
HETATM   13  H12 UNL     1     -11.948  10.150  16.144  1.00  0.00     0.171 HD
HETATM   14  O1  UNL     1     -10.612  10.837  14.056  1.00  0.00    -0.271 OA
BRANCH   8  15
HETATM   15  C2  UNL     1      -8.167   9.189  17.799  1.00  0.00    -0.010 C 
HETATM   16  C1  UNL     1      -8.890  10.451  18.305  1.00  0.00     0.010 C 
HETATM   17  C3  UNL     1      -7.510   8.477  18.996  1.00  0.00     0.010 C 
ENDBRANCH   8  15
ENDBRANCH   3   6
ENDBRANCH   1   2
BRANCH   1  18
HETATM   18  C11 UNL     1      -8.700   8.845  10.346  1.00  0.00     0.074 C 
BRANCH  18  19
HETATM   19  C12 UNL     1      -8.703   9.321   8.913  1.00  0.00    -0.056 A 
HETATM   20  C13 UNL     1      -8.554  10.688   8.620  1.00  0.00     0.007 A 
HETATM   21  C14 UNL     1      -8.506  11.121   7.292  1.00  0.00     0.001 A 
HETATM   22  C15 UNL     1      -8.606  10.196   6.249  1.00  0.00     0.000 A 
HETATM   23  C16 UNL     1      -8.753   8.836   6.531  1.00  0.00     0.001 A 
HETATM   24  C17 UNL     1      -8.801   8.397   7.858  1.00  0.00     0.007 A 
ENDBRANCH  18  19
ENDBRANCH   1  18
BRANCH   1  25
HETATM   25  N3  UNL     1      -6.479   8.047  11.096  1.00  0.00    -0.209 N 
HETATM   26  H22 UNL     1      -5.449   8.212  11.156  1.00  0.00     0.178 HD
BRANCH  25  27
HETATM   27  C18 UNL     1      -6.939   6.702  11.280  1.00  0.00     0.723 A 
HETATM   28  N4  UNL     1      -7.069   5.860  10.220  1.00  0.00    -0.075 NA
HETATM   29  C19 UNL     1      -7.523   4.592  10.386  1.00  0.00     0.138 A 
HETATM   30  C20 UNL     1      -7.861   4.133  11.658  1.00  0.00     0.050 A 
HETATM   31  C21 UNL     1      -7.700   4.997  12.751  1.00  0.00     0.088 A 
HETATM   32  N5  UNL     1      -7.262   6.268  12.527  1.00  0.00    -0.065 NA
BRANCH  31  33
HETATM   33  C22 UNL     1      -8.117   4.572  14.141  1.00  0.00     0.206 C 
BRANCH  33  34
HETATM   34  C23 UNL     1      -6.904   4.392  15.035  1.00  0.00    -0.024 A 
HETATM   35  C24 UNL     1      -6.933   4.829  16.372  1.00  0.00     0.010 A 
HETATM   36  C25 UNL     1      -5.819   4.648  17.197  1.00  0.00     0.001 A 
HETATM   37  C26 UNL     1      -4.672   4.024  16.699  1.00  0.00     0.000 A 
HETATM   38  C27 UNL     1      -4.638   3.577  15.376  1.00  0.00     0.001 A 
HETATM   39  C28 UNL     1      -5.750   3.757  14.545  1.00  0.00     0.010 A 
ENDBRANCH  33  34
BRANCH  33  40
HETATM   40  O4  UNL     1      -8.837   3.350  14.068  1.00  0.00    -0.380 OA
HETATM   41  C29 UNL     1     -10.102   3.484  14.679  1.00  0.00     0.202 C 
ENDBRANCH  33  40
ENDBRANCH  31  33
ENDBRANCH  25  27
ENDBRANCH   1  25
TORSDOF 10
ENDMDL
MODEL 8
REMARK VINA RESULT:    -6.881      1.978      2.896
REMARK INTER + INTRA:         -13.243
REMARK INTER:                 -11.274
REMARK INTRA:                  -1.969
REMARK UNBOUND:                -2.339
REMARK  10 active torsions:
REMARK  status: ('A' for Active; 'I' for Inactive)
REMARK    1  A    between atoms: C2_2  and  C4_4 
REMARK    2  A    between atoms: C6_6  and  N2_12 
REMARK       I    between atoms: N2_12  and  C9_13 
REMARK    3  A    between atoms: C9_13  and  C10_15 
REMARK    4  A    between atoms: C10_15  and  C11_16 
REMARK    5  A    between atoms: C10_15  and  N3_23 
REMARK    6  A    between atoms: C11_16  and  C12_17 
REMARK    7  A    between atoms: N3_23  and  C18_24 
REMARK    8  A    between atoms: C21_28  and  C22_30 
REMARK    9  A    between atoms: C22_30  and  C23_31 
REMARK   10  A    between atoms: C22_30  and  O4_37 
ROOT
HETATM    1  C10 UNL     1       6.428 -11.555   5.174  1.00  0.00     0.196 C 
ENDROOT
BRANCH   1   2
HETATM    2  C9  UNL     1       5.090 -11.545   4.472  1.00  0.00     0.242 C 
HETATM    3  N2  UNL     1       5.043 -11.639   3.040  1.00  0.00    -0.346 N 
HETATM    4  H13 UNL     1       5.931 -11.513   2.504  1.00  0.00     0.163 HD
HETATM    5  O3  UNL     1       4.020 -11.523   5.141  1.00  0.00    -0.271 OA
BRANCH   3   6
HETATM    6  C6  UNL     1       3.790 -11.807   2.299  1.00  0.00     0.177 C 
HETATM    7  C5  UNL     1       3.311 -13.267   2.418  1.00  0.00     0.049 C 
HETATM    8  C4  UNL     1       2.085 -13.564   1.523  1.00  0.00     0.084 C 
HETATM    9  C8  UNL     1       2.472 -13.256   0.097  1.00  0.00     0.228 C 
HETATM   10  N1  UNL     1       3.330 -12.147  -0.193  1.00  0.00    -0.296 N 
HETATM   11  O2  UNL     1       2.026 -13.965  -0.845  1.00  0.00    -0.273 OA
HETATM   12  C7  UNL     1       3.988 -11.421   0.854  1.00  0.00     0.247 C 
HETATM   13  H12 UNL     1       3.512 -11.886  -1.189  1.00  0.00     0.171 HD
HETATM   14  O1  UNL     1       4.694 -10.419   0.563  1.00  0.00    -0.271 OA
BRANCH   8  15
HETATM   15  C2  UNL     1       0.793 -12.788   1.933  1.00  0.00    -0.010 C 
HETATM   16  C1  UNL     1       0.305 -11.881   0.789  1.00  0.00     0.010 C 
HETATM   17  C3  UNL     1      -0.350 -13.735   2.341  1.00  0.00     0.010 C 
ENDBRANCH   8  15
ENDBRANCH   3   6
ENDBRANCH   1   2
BRANCH   1  18
HETATM   18  C11 UNL     1       7.149 -10.203   5.008  1.00  0.00     0.074 C 
BRANCH  18  19
HETATM   19  C12 UNL     1       7.476  -9.552   6.331  1.00  0.00    -0.056 A 
HETATM   20  C13 UNL     1       7.698 -10.341   7.473  1.00  0.00     0.007 A 
HETATM   21  C14 UNL     1       8.050  -9.740   8.685  1.00  0.00     0.001 A 
HETATM   22  C15 UNL     1       8.184  -8.351   8.766  1.00  0.00     0.000 A 
HETATM   23  C16 UNL     1       7.966  -7.560   7.635  1.00  0.00     0.001 A 
HETATM   24  C17 UNL     1       7.613  -8.156   6.420  1.00  0.00     0.007 A 
ENDBRANCH  18  19
ENDBRANCH   1  18
BRANCH   1  25
HETATM   25  N3  UNL     1       7.279 -12.657   4.704  1.00  0.00    -0.209 N 
HETATM   26  H22 UNL     1       7.704 -12.606   3.751  1.00  0.00     0.178 HD
BRANCH  25  27
HETATM   27  C18 UNL     1       7.761 -13.683   5.581  1.00  0.00     0.723 A 
HETATM   28  N4  UNL     1       7.124 -14.882   5.665  1.00  0.00    -0.075 NA
HETATM   29  C19 UNL     1       7.564 -15.850   6.508  1.00  0.00     0.138 A 
HETATM   30  C20 UNL     1       8.686 -15.624   7.304  1.00  0.00     0.050 A 
HETATM   31  C21 UNL     1       9.354 -14.396   7.194  1.00  0.00     0.088 A 
HETATM   32  N5  UNL     1       8.858 -13.449   6.348  1.00  0.00    -0.065 NA
BRANCH  31  33
HETATM   33  C22 UNL     1      10.534 -14.075   8.084  1.00  0.00     0.206 C 
BRANCH  33  34
HETATM   34  C23 UNL     1      10.108 -13.194   9.244  1.00  0.00    -0.024 A 
HETATM   35  C24 UNL     1       8.901 -13.442   9.921  1.00  0.00     0.010 A 
HETATM   36  C25 UNL     1       8.519 -12.638  11.000  1.00  0.00     0.001 A 
HETATM   37  C26 UNL     1       9.340 -11.586  11.414  1.00  0.00     0.000 A 
HETATM   38  C27 UNL     1      10.546 -11.338  10.753  1.00  0.00     0.001 A 
HETATM   39  C28 UNL     1      10.933 -12.139   9.674  1.00  0.00     0.010 A 
ENDBRANCH  33  34
BRANCH  33  40
HETATM   40  O4  UNL     1      11.534 -13.411   7.326  1.00  0.00    -0.380 OA
HETATM   41  C29 UNL     1      12.472 -14.338   6.825  1.00  0.00     0.202 C 
ENDBRANCH  33  40
ENDBRANCH  31  33
ENDBRANCH  25  27
ENDBRANCH   1  25
TORSDOF 10
ENDMDL
MODEL 9
REMARK VINA RESULT:    -6.855     20.119     22.152
REMARK INTER + INTRA:         -13.202
REMARK INTER:                 -11.723
REMARK INTRA:                  -1.479
REMARK UNBOUND:                -2.339
REMARK  10 active torsions:
REMARK  status: ('A' for Active; 'I' for Inactive)
REMARK    1  A    between atoms: C2_2  and  C4_4 
REMARK    2  A    between atoms: C6_6  and  N2_12 
REMARK       I    between atoms: N2_12  and  C9_13 
REMARK    3  A    between atoms: C9_13  and  C10_15 
REMARK    4  A    between atoms: C10_15  and  C11_16 
REMARK    5  A    between atoms: C10_15  and  N3_23 
REMARK    6  A    between atoms: C11_16  and  C12_17 
REMARK    7  A    between atoms: N3_23  and  C18_24 
REMARK    8  A    between atoms: C21_28  and  C22_30 
REMARK    9  A    between atoms: C22_30  and  C23_31 
REMARK   10  A    between atoms: C22_30  and  O4_37 
ROOT
HETATM    1  C10 UNL     1      -6.949   4.632  10.980  1.00  0.00     0.196 C 
ENDROOT
BRANCH   1   2
HETATM    2  C9  UNL     1      -7.909   5.786  10.812  1.00  0.00     0.242 C 
HETATM    3  N2  UNL     1      -7.396   7.095  10.521  1.00  0.00    -0.346 N 
HETATM    4  H13 UNL     1      -6.369   7.261  10.626  1.00  0.00     0.163 HD
HETATM    5  O3  UNL     1      -9.155   5.591  10.862  1.00  0.00    -0.271 OA
BRANCH   3   6
HETATM    6  C6  UNL     1      -8.261   8.226  10.178  1.00  0.00     0.177 C 
HETATM    7  C5  UNL     1      -8.423   8.306   8.647  1.00  0.00     0.049 C 
HETATM    8  C4  UNL     1      -9.186   9.574   8.196  1.00  0.00     0.084 C 
HETATM    9  C8  UNL     1      -8.422  10.774   8.704  1.00  0.00     0.228 C 
HETATM   10  N1  UNL     1      -7.778  10.729   9.983  1.00  0.00    -0.296 N 
HETATM   11  O2  UNL     1      -8.363  11.824   8.010  1.00  0.00    -0.273 OA
HETATM   12  C7  UNL     1      -7.681   9.507  10.725  1.00  0.00     0.247 C 
HETATM   13  H12 UNL     1      -7.336  11.597  10.364  1.00  0.00     0.171 HD
HETATM   14  O1  UNL     1      -7.154   9.518  11.869  1.00  0.00    -0.271 OA
BRANCH   8  15
HETATM   15  C2  UNL     1     -10.676   9.622   8.662  1.00  0.00    -0.010 C 
HETATM   16  C1  UNL     1     -11.458  10.712   7.906  1.00  0.00     0.010 C 
HETATM   17  C3  UNL     1     -11.389   8.271   8.468  1.00  0.00     0.010 C 
ENDBRANCH   8  15
ENDBRANCH   3   6
ENDBRANCH   1   2
BRANCH   1  18
HETATM   18  C11 UNL     1      -5.705   5.059  11.784  1.00  0.00     0.074 C 
BRANCH  18  19
HETATM   19  C12 UNL     1      -5.515   4.242  13.039  1.00  0.00    -0.056 A 
HETATM   20  C13 UNL     1      -4.711   4.726  14.086  1.00  0.00     0.007 A 
HETATM   21  C14 UNL     1      -4.576   3.993  15.268  1.00  0.00     0.001 A 
HETATM   22  C15 UNL     1      -5.242   2.773  15.414  1.00  0.00     0.000 A 
HETATM   23  C16 UNL     1      -6.044   2.284  14.380  1.00  0.00     0.001 A 
HETATM   24  C17 UNL     1      -6.182   3.015  13.196  1.00  0.00     0.007 A 
ENDBRANCH  18  19
ENDBRANCH   1  18
BRANCH   1  25
HETATM   25  N3  UNL     1      -6.557   4.060   9.684  1.00  0.00    -0.209 N 
HETATM   26  H22 UNL     1      -6.671   4.630   8.816  1.00  0.00     0.178 HD
BRANCH  25  27
HETATM   27  C18 UNL     1      -5.790   2.853   9.578  1.00  0.00     0.723 A 
HETATM   28  N4  UNL     1      -4.455   2.898   9.325  1.00  0.00    -0.075 NA
HETATM   29  C19 UNL     1      -3.728   1.758   9.204  1.00  0.00     0.138 A 
HETATM   30  C20 UNL     1      -4.348   0.517   9.341  1.00  0.00     0.050 A 
HETATM   31  C21 UNL     1      -5.721   0.478   9.628  1.00  0.00     0.088 A 
HETATM   32  N5  UNL     1      -6.409   1.651   9.718  1.00  0.00    -0.065 NA
BRANCH  31  33
HETATM   33  C22 UNL     1      -6.454  -0.842   9.718  1.00  0.00     0.206 C 
BRANCH  33  34
HETATM   34  C23 UNL     1      -5.547  -1.924  10.272  1.00  0.00    -0.024 A 
HETATM   35  C24 UNL     1      -4.929  -2.847   9.409  1.00  0.00     0.010 A 
HETATM   36  C25 UNL     1      -4.081  -3.833   9.922  1.00  0.00     0.001 A 
HETATM   37  C26 UNL     1      -3.838  -3.903  11.296  1.00  0.00     0.000 A 
HETATM   38  C27 UNL     1      -4.440  -2.985  12.160  1.00  0.00     0.001 A 
HETATM   39  C28 UNL     1      -5.290  -1.996  11.653  1.00  0.00     0.010 A 
ENDBRANCH  33  34
BRANCH  33  40
HETATM   40  O4  UNL     1      -6.910  -1.220   8.428  1.00  0.00    -0.380 OA
HETATM   41  C29 UNL     1      -8.320  -1.282   8.400  1.00  0.00     0.202 C 
ENDBRANCH  33  40
ENDBRANCH  31  33
ENDBRANCH  25  27
ENDBRANCH   1  25
TORSDOF 10
ENDMDL
